/*---------------------------------------------------------------------------*\
  =========                 |
  \\      /  F ield         | OpenFOAM: The Open Source CFD Toolbox
   \\    /   O peration     | Website:  https://openfoam.org
    \\  /    A nd           | Version:  9
     \\/     M anipulation  |
\*---------------------------------------------------------------------------*/
Build  : 9-c96968adf6d8
Exec   : checkMesh
Date   : Jan 22 2023
Time   : 07:27:51
Host   : "jkhansellcenat"
PID    : 6753
I/O    : uncollated
Case   : /home/jkhansell/Documents/CFD_OpenFOAM/code/CFDFinalProject/meshstudy/runs/GRTsteady4Mesh2
nProcs : 1
sigFpe : Enabling floating point exception trapping (FOAM_SIGFPE).
fileModificationChecking : Monitoring run-time modified files using timeStampMaster (fileModificationSkew 10)
allowSystemOperations : Allowing user-supplied system call operations

// * * * * * * * * * * * * * * * * * * * * * * * * * * * * * * * * * * * * * //
Create time

Create polyMesh for time = 0

Time = 0

Mesh stats
    points:           77636
    internal points:  0
    faces:            267997
    internal faces:   113968
    cells:            76393
    faces per cell:   5
    boundary patches: 5
    point zones:      0
    face zones:       0
    cell zones:       1

Overall number of cells of each type:
    hexahedra:     0
    prisms:        76393
    wedges:        0
    pyramids:      0
    tet wedges:    0
    tetrahedra:    0
    polyhedra:     0

Checking topology...
    Boundary definition OK.
    Cell to face addressing OK.
    Point usage OK.
    Upper triangular ordering OK.
    Face vertices OK.
    Number of regions: 1 (OK).

Checking patch topology for multiply connected surfaces...
    Patch               Faces    Points   Surface topology                  
    Sides               152786   77636    ok (non-closed singly connected)  
    Walls               88       180      ok (non-closed singly connected)  
    Outlet              38       78       ok (non-closed singly connected)  
    Inlet               38       78       ok (non-closed singly connected)  
    Object              1079     2158     ok (non-closed singly connected)  

Checking geometry...
    Overall domain bounding box (-14.553 -15.008 0) (20.447 14.992 0.001)
    Mesh has 2 geometric (non-empty/wedge) directions (1 1 0)
    Mesh has 2 solution (non-empty) directions (1 1 0)
    All edges aligned with or perpendicular to non-empty directions.
    Boundary openness (2.58753e-21 -1.52872e-22 1.22233e-25) OK.
    Max cell openness = 2.2281e-16 OK.
    Max aspect ratio = 2.60357 OK.
    Minimum face area = 6.73802e-07. Maximum face area = 0.38484.  Face area magnitudes OK.
    Min volume = 6.73802e-10. Max volume = 0.00038484.  Total volume = 1.04992.  Cell volumes OK.
    Mesh non-orthogonality Max: 38.4374 average: 7.31658
    Non-orthogonality check OK.
    Face pyramids OK.
    Max skewness = 0.599366 OK.
    Coupled point location match (average 0) OK.

Mesh OK.

End

